OPT_V9/4ts_w_storgae_myc_NEW_PARAM/powerflow_results_t2.txt
Pandapower Network Debug Info
==================================================

BUS:
       vm_pu  va_degree      p_mw    q_mvar
0   1.004058   0.201667 -0.006859 -0.000773
1   1.004270   0.268726  0.001310  0.001910
2   1.007116   0.325422 -0.002507 -0.000849
3   1.004704   0.237078 -0.001057  0.000110
4   1.003275   0.193412 -0.001853 -0.000003
5   1.000222   0.157853 -0.003216  0.000817
6   0.998291   0.162216  0.001335  0.001128
7   1.003002   0.169173 -0.004874  0.000422
8   1.001025   0.093328 -0.006358  0.002452
9   0.999941   0.002098  0.003115  0.008185
10  0.999931   0.002303  0.005945  0.010200
11  0.999923   0.002438  0.006925  0.010194
12  0.999944   0.006326 -0.000590  0.005243
13  0.999924   0.006958  0.004256  0.010775
14  0.999930   0.006749  0.004429  0.013092
15  0.999970   0.001384  0.000000  0.000000
16  0.999970   0.001384  0.000000  0.000000
17  0.999945   0.006213  0.000000  0.000000
18  0.999945   0.006216  0.000000  0.000000
19  1.000000   0.000000 -0.006942 -0.034015
20  1.000000   0.000005  0.000000  0.000000
21  1.000000   0.000000  0.006807 -0.038961
22  1.000000   0.000005  0.000000  0.000000
--------------------------------------------------

LINE:
    p_from_mw   q_from_mvar   p_to_mw  q_to_mvar         pl_mw       ql_mvar  i_from_ka   i_to_ka      i_ka  vm_from_pu  va_from_degree  vm_to_pu  va_to_degree  loading_percent
0    0.006932  3.001487e-02 -0.006931  -0.030014  9.281889e-07  7.237242e-07   0.001186  0.001186  0.001186    1.000000        0.000005  0.999970      0.001384         0.515513
1   -0.006818  3.496058e-02  0.006821  -0.034958  3.412689e-06  2.660930e-06   0.001371  0.001371  0.001371    1.000000        0.000005  0.999945      0.006213         0.596078
2    0.015987  2.857948e-02 -0.015986  -0.028579  8.292879e-07  6.466094e-07   0.001260  0.001260  0.001260    0.999970        0.001384  0.999941      0.002098         0.548029
3   -0.000590  5.243231e-03  0.000590  -0.005243  9.628753e-09  7.507697e-09   0.000203  0.000203  0.000203    0.999945        0.006213  0.999944      0.006326         0.088304
4    0.008685  2.386733e-02 -0.008685  -0.023867  3.527642e-07  2.750560e-07   0.000978  0.000978  0.000978    0.999945        0.006213  0.999930      0.006749         0.425061
5   -0.009066  4.347755e-04  0.009105  -0.000405  3.853453e-05  3.004601e-05   0.013101  0.013101  0.013101    0.999970        0.001384  1.004058      0.201667         5.696175
6   -0.001873  1.951209e-03  0.001879  -0.001947  5.677007e-06  4.426455e-06   0.003904  0.003904  0.003904    0.999945        0.006216  1.000222      0.157853         1.697585
7   -0.004858  4.345885e-04  0.004874  -0.000422  1.607121e-05  1.253098e-05   0.007040  0.007040  0.007040    0.999945        0.006216  1.003002      0.169173         3.060756
8   -0.008195  2.461723e-03  0.008207  -0.002452  1.258942e-05  9.816175e-06   0.012351  0.012351  0.012351    0.999945        0.006216  1.001025      0.093328         5.369935
9   -0.012870 -2.039390e-02  0.012871   0.020394  2.011443e-07  1.568355e-07   0.000928  0.000928  0.000928    0.999931        0.002303  0.999941      0.002098         0.403597
10  -0.006925 -1.019387e-02  0.006925   0.010194  7.428898e-08  5.792434e-08   0.000474  0.000474  0.000474    0.999923        0.002438  0.999931      0.002303         0.206252
11   0.004256  1.077546e-02 -0.004256  -0.010775  6.565217e-08  5.119008e-08   0.000446  0.000446  0.000446    0.999930        0.006749  0.999924      0.006958         0.193892
12   0.001191 -1.066017e-03 -0.001190   0.001067  1.498942e-06  1.168749e-06   0.002297  0.002297  0.002297    1.004270        0.268726  1.004058      0.201667         0.998897
13   0.001057 -1.095266e-04 -0.001056   0.000110  7.471252e-07  5.825459e-07   0.001527  0.001527  0.001527    1.004704        0.237078  1.004058      0.201667         0.663839
14   0.002507  8.486039e-04 -0.002501  -0.000844  6.248999e-06  4.872447e-06   0.003794  0.003794  0.003794    1.007116        0.325422  1.004270      0.268726         1.649415
15  -0.001849 -8.246379e-08  0.001853   0.000003  4.152362e-06  3.237665e-06   0.002666  0.002666  0.002666    1.001025        0.093328  1.003275      0.193412         1.159305
16  -0.001335 -1.127975e-03  0.001337   0.001130  2.667636e-06  2.079999e-06   0.002527  0.002527  0.002527    0.998291        0.162216  1.000222      0.157853         1.098500
--------------------------------------------------

TRAFO:
    p_hv_mw  q_hv_mvar   p_lv_mw  q_lv_mvar    pl_mw  ql_mvar   i_hv_ka   i_lv_ka  vm_hv_pu  va_hv_degree  vm_lv_pu  va_lv_degree  loading_percent
0 -0.009056   0.001435  0.009066  -0.000435  0.00001    0.001  0.000353  0.013101  0.999970      0.001384  0.999970      0.001384         0.091693
1 -0.014916   0.005847  0.014926  -0.004848  0.00001    0.001  0.000617  0.022652  0.999945      0.006213  0.999945      0.006216         0.160217
2  0.006942   0.034015 -0.006932  -0.030015  0.00001    0.004  0.000286  0.001186  1.000000      0.000000  1.000000      0.000005         0.086790
3 -0.006807   0.038961  0.006818  -0.034961  0.00001    0.004  0.000326  0.001371  1.000000      0.000000  1.000000      0.000005         0.098877
--------------------------------------------------
